13
Coordinates from ORCA-job CBr4_urea
  Br  4.99519023349151     -3.12086010074283      1.88034497760475
  C   5.18792439422557     -1.84374236767724      0.40402055536484
  Br  6.26528063895648     -2.67095319518582     -1.02101871758634
  Br  3.42559209257795     -1.36542195081564     -0.30213717491234
  Br  6.11015571374096     -0.23987688321119      1.05234127355162
  N   1.67029565155042     -1.93343643973502     -3.34979051203320
  C   0.71638235058913     -1.37536304234414     -2.52762467002690
  O   0.98486220650319     -0.83671150884016     -1.45641279729596
  N   -0.58136898516160     -1.46002946440518     -2.99409595590706
  H   2.57085972660561     -2.05963274574072     -2.91196746202501
  H   1.39141126836233     -2.67625939265307     -3.97183444076463
  H   -0.72759598436543     -1.49625451835499     -3.99148225202577
  H   -1.22337930707619     -0.86327839029396     -2.49576282394399
