8
Coordinates from ORCA-job CF3Br_H2O
  F   1.63576200818887      1.04621810655994      0.47511272727442
  C   2.89394292093677      0.63497963252980      0.28967865706502
  F   3.71846596131430      1.52542611719576      0.84873312543358
  F   3.05274975528778     -0.53865825697826      0.90729306055943
  Br  3.27905679343697      0.45789552704068     -1.61799912299817
  O   3.79127024933293      0.24781018459928     -4.55896599461397
  H   2.91908753924982      0.06098421140251     -4.92134701425321
  H   3.98744477225253      1.14104447765030     -4.86028543846708
