6
Coordinates from ORCA-job F2Se_H2O
  F   1.95728283259633     -1.58997372179355     -1.57805138238412
  Se  3.60905652591624     -1.01663516660230     -1.28857617245366
  F   3.12965550056842      0.69037222100196     -1.20283446518688
  O   3.99630211020226     -3.54008923585007     -1.45305223098064
  H   3.56436585880615     -3.75416166895618     -2.28947884199666
  H   3.38778717191058     -3.86802242779985     -0.77903690699804
