12
Coordinates from ORCA-job F3C2S_HCN
  C   0.62595318489204      0.88247662189462     -0.76019540602795
  S   2.35305596668418      0.32416380145263     -0.43870728142087
  C   3.03702681963957      0.57629630355394     -2.13615093511048
  H   6.30577032151253      3.19491261700771      0.23209044133774
  C   5.95156221633133      2.18727635925134      0.28262548449691
  N   5.56928947221498      1.10348422469876      0.33622643745530
  F   0.04565119103707      1.01662539101492      0.44537452213144
  F   -0.09455733733711      0.00357304988884     -1.47049090831373
  F   0.56997420808777      2.06277419016999     -1.39697863075544
  F   3.32473733467411      1.86420518140810     -2.38821914430224
  F   2.20089875068149      0.15376062930263     -3.09681873297909
  F   4.17202787158197     -0.12777836964349     -2.21309584651156
